[General]
network = zwavenetwork.zwave_test.ZWaveNetwork
sim-time-limit = 200s

*.frequency = 908.42MHz
*.range = 30m


**.controller.frequency = parent.frequency
**.controller.range = parent.range
**.controller.frequencyLow = 908.40MHz 
**.controller.frequencyHigh = 908.42MHz

**.node0.frequency = parent.frequency
**.node0.range = parent.range
**.node0.frequencyLow = 908.40MHz
**.node0.frequencyHigh = 908.42MHz

**.node1.frequency = parent.frequency
**.node1.range = parent.range
**.node1.frequencyLow = 908.40MHz
**.node1.frequencyHigh = 908.42MHz

**.node2.frequency = parent.frequency
**.node2.range = parent.range
**.node2.frequencyLow = 908.40MHz
**.node2.frequencyHigh = 908.42MHz

**.node3.frequency = parent.frequency
**.node3.range = parent.range
**.node3.frequencyLow = 908.40MHz
**.node3.frequencyHigh = 908.42MHz

**.node4.frequency = parent.frequency
**.node4.range = parent.range
**.node4.frequencyLow = 908.40MHz
**.node4.frequencyHigh = 908.42MHz

**.node5.frequency = parent.frequency
**.node5.range = parent.range
**.node5.frequencyLow = 908.40MHz
**.node5.frequencyHigh = 908.42MHz

**.node6.frequency = parent.frequency
**.node6.range = parent.range
**.node6.frequencyLow = 908.40MHz
**.node6.frequencyHigh = 908.42MHz

**.node7.frequency = parent.frequency
**.node7.range = parent.range
**.node7.frequencyLow = 908.40MHz
**.node7.frequencyHigh = 908.42MHz

**.node8.frequency = parent.frequency
**.node8.range = parent.range
**.node8.frequencyLow = 908.40MHz
**.node8.frequencyHigh = 908.42MHz

**.node9.frequency = parent.frequency
**.node9.range = parent.range
**.node9.frequencyLow = 908.40MHz
**.node9.frequencyHigh = 908.42MHz

[Config SmartHomeWithMesh]
description = "Smart Home Z-Wave network with mesh and visual elements"

**.node0.deviceType = "Lamp"      
**.node1.deviceType = "alarm"       
**.node2.deviceType = "thermostat" 
**.node3.deviceType = "door"       
**.node4.deviceType = "window"     
**.node5.deviceType = "Lamp"       
**.node6.deviceType = "sensor"     
**.node7.deviceType = "camera"     
**.node8.deviceType = "Door Lock"  
**.node9.deviceType = "Lamp"       

**.node1.alarmTestInterval = 15s
**.node6.motionDetectionInterval = 20s

**.node0.app[0].destAddresses = "node1"
**.node1.app[0].destAddresses = "node2"
**.node2.app[0].destAddresses = "node3"
**.node3.app[0].destAddresses = "node4"

**.node5.app[0].destAddresses = "node6"
**.node6.app[0].destAddresses = "node7"
**.node7.app[0].destAddresses = "node8"
**.node8.app[0].destAddresses = "node9"

**.node0.app[1].destAddresses = "node5"
**.node1.app[1].destAddresses = "node6"
**.node2.app[1].destAddresses = "node7"
**.node3.app[1].destAddresses = "node8"
**.node4.app[1].destAddresses = "node9"

**.node0.app[0].sendInterval = 2s
**.node0.app[0].startTime = 1s
**.node0.app[1].sendInterval = 2s
**.node0.app[1].startTime = 1s

**.node1.app[0].sendInterval = 2s
**.node1.app[0].startTime = 1s
**.node1.app[1].sendInterval = 2s
**.node1.app[1].startTime = 1s

**.node2.app[0].sendInterval = 2s
**.node2.app[0].startTime = 1s
**.node2.app[1].sendInterval = 2s
**.node2.app[1].startTime = 1s

**.node3.app[0].sendInterval = 2s
**.node3.app[0].startTime = 1s
**.node3.app[1].sendInterval = 2s
**.node3.app[1].startTime = 1s

**.node4.app[0].sendInterval = 2s
**.node4.app[0].startTime = 1s
**.node4.app[1].sendInterval = 2s
**.node4.app[1].startTime = 1s

**.node5.app[0].sendInterval = 2s
**.node5.app[0].startTime = 1s

**.node6.app[0].sendInterval = 2s
**.node6.app[0].startTime = 1s
**.node6.app[1].sendInterval = 2s
**.node6.app[1].startTime = 1s

**.node7.app[0].sendInterval = 2s
**.node7.app[0].startTime = 1s

**.node8.app[0].sendInterval = 2s
**.node8.app[0].startTime = 1s

**.node9.app[0].sendInterval = 2s
**.node9.app[0].startTime = 1s